REMARK SMILES Cn1c(=O)c2c(ncn2C)n(C)c1=O
REMARK SMILES IDX 4 1 14 2 11 3 9 4 2 5 7 6 5 7 6 8 3 9 13 10 8 11 12 12 10 13
REMARK SMILES IDX 1 14
REMARK H PARENT
REMARK Flexibility Score: inf
ROOT
ATOM      1  O   UNL     1       3.732   2.000   0.000  1.00  0.00    -0.267 OA
ATOM      2  O   UNL     1       2.000  -1.000   0.000  1.00  0.00    -0.247 OA
ATOM      3  N   UNL     1       3.732  -1.000   0.000  1.00  0.00    -0.279 N 
ATOM      4  N   UNL     1       5.544   0.805   0.000  1.00  0.00    -0.328 N 
ATOM      5  N   UNL     1       2.866   0.500   0.000  1.00  0.00    -0.261 N 
ATOM      6  N   UNL     1       5.544  -0.805   0.000  1.00  0.00    -0.218 NA
ATOM      7  C   UNL     1       4.598   0.500   0.000  1.00  0.00     0.152 A 
ATOM      8  C   UNL     1       4.598  -0.500   0.000  1.00  0.00     0.167 A 
ATOM      9  C   UNL     1       3.732   1.000   0.000  1.00  0.00     0.282 A 
ATOM     10  C   UNL     1       2.866  -0.500   0.000  1.00  0.00     0.332 A 
ATOM     11  C   UNL     1       6.128   0.000   0.000  1.00  0.00     0.202 A 
ATOM     12  C   UNL     1       3.732  -2.000   0.000  1.00  0.00     0.157 C 
ATOM     13  C   UNL     1       5.855   1.755   0.000  1.00  0.00     0.151 C 
ATOM     14  C   UNL     1       2.000   1.000   0.000  1.00  0.00     0.159 C 
ENDROOT
TORSDOF 0
