MODEL 1
REMARK VINA RESULT:      -4.9      0.000      0.000
REMARK SMILES Cn1c(=O)c2c(ncn2C)n(C)c1=O
REMARK SMILES IDX 4 1 14 2 11 3 9 4 2 5 7 6 5 7 6 8 3 9 13 10 8 11 12 12 10 13
REMARK SMILES IDX 1 14
REMARK H PARENT
REMARK Flexibility Score: inf
ROOT
ATOM      1  O   UNL     1      -3.371  24.969  41.662  1.00  0.00    -0.267 OA
ATOM      2  O   UNL     1      -2.925  21.757  42.879  1.00  0.00    -0.247 OA
ATOM      3  N   UNL     1      -2.861  22.053  41.174  1.00  0.00    -0.279 N 
ATOM      4  N   UNL     1      -3.102  24.118  39.684  1.00  0.00    -0.328 N 
ATOM      5  N   UNL     1      -3.148  23.363  42.271  1.00  0.00    -0.261 N 
ATOM      6  N   UNL     1      -2.828  22.554  39.421  1.00  0.00    -0.218 NA
ATOM      7  C   UNL     1      -3.085  23.660  40.565  1.00  0.00     0.152 A 
ATOM      8  C   UNL     1      -2.915  22.688  40.402  1.00  0.00     0.167 A 
ATOM      9  C   UNL     1      -3.201  23.997  41.499  1.00  0.00     0.282 A 
ATOM     10  C   UNL     1      -2.978  22.391  42.108  1.00  0.00     0.332 A 
ATOM     11  C   UNL     1      -2.944  23.436  38.978  1.00  0.00     0.202 A 
ATOM     12  C   UNL     1      -2.691  21.082  41.011  1.00  0.00     0.157 C 
ATOM     13  C   UNL     1      -3.252  25.095  39.532  1.00  0.00     0.151 C 
ATOM     14  C   UNL     1      -3.264  23.700  43.205  1.00  0.00     0.159 C 
ENDROOT
TORSDOF 0
ENDMDL
MODEL 2
REMARK VINA RESULT:      -4.5     23.521     24.748
REMARK SMILES Cn1c(=O)c2c(ncn2C)n(C)c1=O
REMARK SMILES IDX 4 1 14 2 11 3 9 4 2 5 7 6 5 7 6 8 3 9 13 10 8 11 12 12 10 13
REMARK SMILES IDX 1 14
REMARK H PARENT
REMARK Flexibility Score: inf
ROOT
ATOM      1  O   UNL     1      12.500   7.926  27.595  1.00  0.00    -0.267 OA
ATOM      2  O   UNL     1      14.723   7.195  30.149  1.00  0.00    -0.247 OA
ATOM      3  N   UNL     1      13.445   8.334  30.413  1.00  0.00    -0.279 N 
ATOM      4  N   UNL     1      11.539   9.280  28.993  1.00  0.00    -0.328 N 
ATOM      5  N   UNL     1      13.611   7.560  28.872  1.00  0.00    -0.261 N 
ATOM      6  N   UNL     1      12.046   9.499  30.505  1.00  0.00    -0.218 NA
ATOM      7  C   UNL     1      12.333   8.699  29.136  1.00  0.00     0.152 A 
ATOM      8  C   UNL     1      12.648   8.835  30.075  1.00  0.00     0.167 A 
ATOM      9  C   UNL     1      12.815   8.062  28.534  1.00  0.00     0.282 A 
ATOM     10  C   UNL     1      13.926   7.696  29.811  1.00  0.00     0.332 A 
ATOM     11  C   UNL     1      11.362   9.773  29.838  1.00  0.00     0.202 A 
ATOM     12  C   UNL     1      13.760   8.469  31.352  1.00  0.00     0.157 C 
ATOM     13  C   UNL     1      11.011   9.355  28.148  1.00  0.00     0.151 C 
ATOM     14  C   UNL     1      14.093   6.923  28.271  1.00  0.00     0.159 C 
ENDROOT
TORSDOF 0
ENDMDL
MODEL 3
REMARK VINA RESULT:      -4.2      2.113      3.444
REMARK SMILES Cn1c(=O)c2c(ncn2C)n(C)c1=O
REMARK SMILES IDX 4 1 14 2 11 3 9 4 2 5 7 6 5 7 6 8 3 9 13 10 8 11 12 12 10 13
REMARK SMILES IDX 1 14
REMARK H PARENT
REMARK Flexibility Score: inf
ROOT
ATOM      1  O   UNL     1      -4.241  23.961  37.094  1.00  0.00    -0.267 OA
ATOM      2  O   UNL     1      -2.674  22.623  39.878  1.00  0.00    -0.247 OA
ATOM      3  N   UNL     1      -3.185  24.277  39.884  1.00  0.00    -0.279 N 
ATOM      4  N   UNL     1      -4.356  25.818  38.211  1.00  0.00    -0.328 N 
ATOM      5  N   UNL     1      -3.458  23.292  38.486  1.00  0.00    -0.261 N 
ATOM      6  N   UNL     1      -3.789  25.988  39.709  1.00  0.00    -0.218 NA
ATOM      7  C   UNL     1      -3.969  24.946  38.492  1.00  0.00     0.152 A 
ATOM      8  C   UNL     1      -3.617  25.052  39.422  1.00  0.00     0.167 A 
ATOM      9  C   UNL     1      -3.889  24.066  38.024  1.00  0.00     0.282 A 
ATOM     10  C   UNL     1      -3.106  23.397  39.416  1.00  0.00     0.332 A 
ATOM     11  C   UNL     1      -4.245  26.461  38.962  1.00  0.00     0.202 A 
ATOM     12  C   UNL     1      -2.834  24.383  40.814  1.00  0.00     0.157 C 
ATOM     13  C   UNL     1      -4.782  26.015  37.329  1.00  0.00     0.151 C 
ATOM     14  C   UNL     1      -3.378  22.412  38.018  1.00  0.00     0.159 C 
ENDROOT
TORSDOF 0
ENDMDL
MODEL 4
REMARK VINA RESULT:      -4.2     20.562     21.651
REMARK SMILES Cn1c(=O)c2c(ncn2C)n(C)c1=O
REMARK SMILES IDX 4 1 14 2 11 3 9 4 2 5 7 6 5 7 6 8 3 9 13 10 8 11 12 12 10 13
REMARK SMILES IDX 1 14
REMARK H PARENT
REMARK Flexibility Score: inf
ROOT
ATOM      1  O   UNL     1       9.277  12.328  29.864  1.00  0.00    -0.267 OA
ATOM      2  O   UNL     1      11.375   9.613  29.388  1.00  0.00    -0.247 OA
ATOM      3  N   UNL     1      10.359  10.160  28.095  1.00  0.00    -0.279 N 
ATOM      4  N   UNL     1       8.646  12.037  27.807  1.00  0.00    -0.328 N 
ATOM      5  N   UNL     1      10.326  10.970  29.626  1.00  0.00    -0.261 N 
ATOM      6  N   UNL     1       9.227  10.873  26.858  1.00  0.00    -0.218 NA
ATOM      7  C   UNL     1       9.310  11.518  28.333  1.00  0.00     0.152 A 
ATOM      8  C   UNL     1       9.671  10.795  27.744  1.00  0.00     0.167 A 
ATOM      9  C   UNL     1       9.638  11.605  29.274  1.00  0.00     0.282 A 
ATOM     10  C   UNL     1      10.686  10.248  29.036  1.00  0.00     0.332 A 
ATOM     11  C   UNL     1       8.594  11.640  26.897  1.00  0.00     0.202 A 
ATOM     12  C   UNL     1      10.720   9.437  27.506  1.00  0.00     0.157 C 
ATOM     13  C   UNL     1       8.121  12.822  28.135  1.00  0.00     0.151 C 
ATOM     14  C   UNL     1      10.653  11.058  30.567  1.00  0.00     0.159 C 
ENDROOT
TORSDOF 0
ENDMDL
MODEL 5
REMARK VINA RESULT:      -4.0     32.503     33.650
REMARK SMILES Cn1c(=O)c2c(ncn2C)n(C)c1=O
REMARK SMILES IDX 4 1 14 2 11 3 9 4 2 5 7 6 5 7 6 8 3 9 13 10 8 11 12 12 10 13
REMARK SMILES IDX 1 14
REMARK H PARENT
REMARK Flexibility Score: inf
ROOT
ATOM      1  O   UNL     1      20.489   4.109  27.966  1.00  0.00    -0.267 OA
ATOM      2  O   UNL     1      23.711   4.107  26.694  1.00  0.00    -0.247 OA
ATOM      3  N   UNL     1      22.791   5.574  26.719  1.00  0.00    -0.279 N 
ATOM      4  N   UNL     1      20.444   6.227  27.495  1.00  0.00    -0.328 N 
ATOM      5  N   UNL     1      22.100   4.108  27.330  1.00  0.00    -0.261 N 
ATOM      6  N   UNL     1      21.679   7.014  26.826  1.00  0.00    -0.218 NA
ATOM      7  C   UNL     1      21.180   5.575  27.355  1.00  0.00     0.152 A 
ATOM      8  C   UNL     1      21.947   6.063  26.939  1.00  0.00     0.167 A 
ATOM      9  C   UNL     1      21.257   4.597  27.550  1.00  0.00     0.282 A 
ATOM     10  C   UNL     1      22.868   4.596  26.914  1.00  0.00     0.332 A 
ATOM     11  C   UNL     1      20.751   7.115  27.169  1.00  0.00     0.202 A 
ATOM     12  C   UNL     1      23.559   6.062  26.303  1.00  0.00     0.157 C 
ATOM     13  C   UNL     1      19.549   6.027  27.894  1.00  0.00     0.151 C 
ATOM     14  C   UNL     1      22.177   3.130  27.525  1.00  0.00     0.159 C 
ENDROOT
TORSDOF 0
ENDMDL
MODEL 6
REMARK VINA RESULT:      -4.0     19.215     20.067
REMARK SMILES Cn1c(=O)c2c(ncn2C)n(C)c1=O
REMARK SMILES IDX 4 1 14 2 11 3 9 4 2 5 7 6 5 7 6 8 3 9 13 10 8 11 12 12 10 13
REMARK SMILES IDX 1 14
REMARK H PARENT
REMARK Flexibility Score: inf
ROOT
ATOM      1  O   UNL     1       9.930  12.972  28.012  1.00  0.00    -0.267 OA
ATOM      2  O   UNL     1       7.656  11.326  30.043  1.00  0.00    -0.247 OA
ATOM      3  N   UNL     1       7.102  12.204  28.656  1.00  0.00    -0.279 N 
ATOM      4  N   UNL     1       8.224  13.584  26.818  1.00  0.00    -0.328 N 
ATOM      5  N   UNL     1       8.793  12.149  29.027  1.00  0.00    -0.261 N 
ATOM      6  N   UNL     1       6.706  13.172  27.163  1.00  0.00    -0.218 NA
ATOM      7  C   UNL     1       8.239  13.027  27.640  1.00  0.00     0.152 A 
ATOM      8  C   UNL     1       7.296  12.771  27.855  1.00  0.00     0.167 A 
ATOM      9  C   UNL     1       8.987  12.716  28.226  1.00  0.00     0.282 A 
ATOM     10  C   UNL     1       7.851  11.893  29.242  1.00  0.00     0.332 A 
ATOM     11  C   UNL     1       7.278  13.674  26.523  1.00  0.00     0.202 A 
ATOM     12  C   UNL     1       6.160  11.948  28.871  1.00  0.00     0.157 C 
ATOM     13  C   UNL     1       9.020  13.985  26.365  1.00  0.00     0.151 C 
ATOM     14  C   UNL     1       9.542  11.838  29.613  1.00  0.00     0.159 C 
ENDROOT
TORSDOF 0
ENDMDL
MODEL 7
REMARK VINA RESULT:      -3.9     32.487     33.691
REMARK SMILES Cn1c(=O)c2c(ncn2C)n(C)c1=O
REMARK SMILES IDX 4 1 14 2 11 3 9 4 2 5 7 6 5 7 6 8 3 9 13 10 8 11 12 12 10 13
REMARK SMILES IDX 1 14
REMARK H PARENT
REMARK Flexibility Score: inf
ROOT
ATOM      1  O   UNL     1      22.247   3.415  26.960  1.00  0.00    -0.267 OA
ATOM      2  O   UNL     1      23.304   6.660  26.364  1.00  0.00    -0.247 OA
ATOM      3  N   UNL     1      21.853   6.373  27.265  1.00  0.00    -0.279 N 
ATOM      4  N   UNL     1      20.572   4.293  28.024  1.00  0.00    -0.328 N 
ATOM      5  N   UNL     1      22.775   5.037  26.662  1.00  0.00    -0.261 N 
ATOM      6  N   UNL     1      20.360   5.881  28.188  1.00  0.00    -0.218 NA
ATOM      7  C   UNL     1      21.324   4.751  27.563  1.00  0.00     0.152 A 
ATOM      8  C   UNL     1      21.193   5.737  27.665  1.00  0.00     0.167 A 
ATOM      9  C   UNL     1      22.116   4.401  27.062  1.00  0.00     0.282 A 
ATOM     10  C   UNL     1      22.644   6.023  26.764  1.00  0.00     0.332 A 
ATOM     11  C   UNL     1      19.977   4.990  28.410  1.00  0.00     0.202 A 
ATOM     12  C   UNL     1      21.721   7.359  27.367  1.00  0.00     0.157 C 
ATOM     13  C   UNL     1      20.436   3.305  28.089  1.00  0.00     0.151 C 
ATOM     14  C   UNL     1      23.567   4.688  26.160  1.00  0.00     0.159 C 
ENDROOT
TORSDOF 0
ENDMDL
MODEL 8
REMARK VINA RESULT:      -3.8     19.093     20.343
REMARK SMILES Cn1c(=O)c2c(ncn2C)n(C)c1=O
REMARK SMILES IDX 4 1 14 2 11 3 9 4 2 5 7 6 5 7 6 8 3 9 13 10 8 11 12 12 10 13
REMARK SMILES IDX 1 14
REMARK H PARENT
REMARK Flexibility Score: inf
ROOT
ATOM      1  O   UNL     1       8.594   9.787  27.906  1.00  0.00    -0.267 OA
ATOM      2  O   UNL     1       5.575  10.014  29.591  1.00  0.00    -0.247 OA
ATOM      3  N   UNL     1       6.704  11.326  29.656  1.00  0.00    -0.279 N 
ATOM      4  N   UNL     1       9.021  11.773  28.671  1.00  0.00    -0.328 N 
ATOM      5  N   UNL     1       7.084   9.901  28.749  1.00  0.00    -0.261 N 
ATOM      6  N   UNL     1       8.007  12.599  29.610  1.00  0.00    -0.218 NA
ATOM      7  C   UNL     1       8.213  11.213  28.813  1.00  0.00     0.152 A 
ATOM      8  C   UNL     1       7.583  11.726  29.396  1.00  0.00     0.167 A 
ATOM      9  C   UNL     1       7.964  10.300  28.489  1.00  0.00     0.282 A 
ATOM     10  C   UNL     1       6.455  10.414  29.332  1.00  0.00     0.332 A 
ATOM     11  C   UNL     1       8.895  12.629  29.162  1.00  0.00     0.202 A 
ATOM     12  C   UNL     1       6.074  11.839  30.239  1.00  0.00     0.157 C 
ATOM     13  C   UNL     1       9.822  11.522  28.128  1.00  0.00     0.151 C 
ATOM     14  C   UNL     1       6.835   8.988  28.425  1.00  0.00     0.159 C 
ENDROOT
TORSDOF 0
ENDMDL
MODEL 9
REMARK VINA RESULT:      -3.7     19.512     19.672
REMARK SMILES Cn1c(=O)c2c(ncn2C)n(C)c1=O
REMARK SMILES IDX 4 1 14 2 11 3 9 4 2 5 7 6 5 7 6 8 3 9 13 10 8 11 12 12 10 13
REMARK SMILES IDX 1 14
REMARK H PARENT
REMARK Flexibility Score: inf
ROOT
ATOM      1  O   UNL     1       5.886  10.980  28.901  1.00  0.00    -0.267 OA
ATOM      2  O   UNL     1       9.008  12.259  29.686  1.00  0.00    -0.247 OA
ATOM      3  N   UNL     1       8.103  12.929  28.370  1.00  0.00    -0.279 N 
ATOM      4  N   UNL     1       5.823  12.458  27.313  1.00  0.00    -0.328 N 
ATOM      5  N   UNL     1       7.447  11.620  29.293  1.00  0.00    -0.261 N 
ATOM      6  N   UNL     1       7.013  13.504  27.027  1.00  0.00    -0.218 NA
ATOM      7  C   UNL     1       6.542  12.290  27.977  1.00  0.00     0.152 A 
ATOM      8  C   UNL     1       7.281  12.940  27.800  1.00  0.00     0.167 A 
ATOM      9  C   UNL     1       6.625  11.630  28.724  1.00  0.00     0.282 A 
ATOM     10  C   UNL     1       8.186  12.269  29.116  1.00  0.00     0.332 A 
ATOM     11  C   UNL     1       6.113  13.207  26.726  1.00  0.00     0.202 A 
ATOM     12  C   UNL     1       8.843  13.579  28.192  1.00  0.00     0.157 C 
ATOM     13  C   UNL     1       4.958  11.962  27.245  1.00  0.00     0.151 C 
ATOM     14  C   UNL     1       7.530  10.960  30.040  1.00  0.00     0.159 C 
ENDROOT
TORSDOF 0
ENDMDL
