MODEL 1
REMARK VINA RESULT:      -5.0      0.000      0.000
REMARK SMILES Cn1c(=O)c2c(ncn2C)n(C)c1=O
REMARK SMILES IDX 4 1 14 2 11 3 9 4 2 5 7 6 5 7 6 8 3 9 13 10 8 11 12 12 10 13
REMARK SMILES IDX 1 14
REMARK H PARENT
REMARK Flexibility Score: inf
ROOT
ATOM      1  O   UNL     1      -2.674  22.755  39.768  1.00  0.00    -0.267 OA
ATOM      2  O   UNL     1      -3.357  25.211  42.113  1.00  0.00    -0.247 OA
ATOM      3  N   UNL     1      -3.256  23.552  42.601  1.00  0.00    -0.279 N 
ATOM      4  N   UNL     1      -2.800  21.337  41.407  1.00  0.00    -0.328 N 
ATOM      5  N   UNL     1      -3.015  23.983  40.941  1.00  0.00    -0.261 N 
ATOM      6  N   UNL     1      -3.112  21.765  42.927  1.00  0.00    -0.218 NA
ATOM      7  C   UNL     1      -2.914  22.324  41.429  1.00  0.00     0.152 A 
ATOM      8  C   UNL     1      -3.108  22.590  42.373  1.00  0.00     0.167 A 
ATOM      9  C   UNL     1      -2.868  23.021  40.713  1.00  0.00     0.282 A 
ATOM     10  C   UNL     1      -3.209  24.249  41.885  1.00  0.00     0.332 A 
ATOM     11  C   UNL     1      -2.922  20.992  42.332  1.00  0.00     0.202 A 
ATOM     12  C   UNL     1      -3.450  23.818  43.545  1.00  0.00     0.157 C 
ATOM     13  C   UNL     1      -2.597  20.787  40.598  1.00  0.00     0.151 C 
ATOM     14  C   UNL     1      -2.969  24.679  40.225  1.00  0.00     0.159 C 
ENDROOT
TORSDOF 0
ENDMDL
MODEL 2
REMARK VINA RESULT:      -4.9      1.282      3.015
REMARK SMILES Cn1c(=O)c2c(ncn2C)n(C)c1=O
REMARK SMILES IDX 4 1 14 2 11 3 9 4 2 5 7 6 5 7 6 8 3 9 13 10 8 11 12 12 10 13
REMARK SMILES IDX 1 14
REMARK H PARENT
REMARK Flexibility Score: inf
ROOT
ATOM      1  O   UNL     1      -3.350  24.837  41.737  1.00  0.00    -0.267 OA
ATOM      2  O   UNL     1      -2.903  21.583  42.839  1.00  0.00    -0.247 OA
ATOM      3  N   UNL     1      -2.844  21.940  41.145  1.00  0.00    -0.279 N 
ATOM      4  N   UNL     1      -3.086  24.056  39.729  1.00  0.00    -0.328 N 
ATOM      5  N   UNL     1      -3.127  23.210  42.288  1.00  0.00    -0.261 N 
ATOM      6  N   UNL     1      -2.814  22.501  39.412  1.00  0.00    -0.218 NA
ATOM      7  C   UNL     1      -3.067  23.567  40.594  1.00  0.00     0.152 A 
ATOM      8  C   UNL     1      -2.898  22.601  40.397  1.00  0.00     0.167 A 
ATOM      9  C   UNL     1      -3.181  23.871  41.540  1.00  0.00     0.282 A 
ATOM     10  C   UNL     1      -2.958  22.244  42.091  1.00  0.00     0.332 A 
ATOM     11  C   UNL     1      -2.930  23.399  38.999  1.00  0.00     0.202 A 
ATOM     12  C   UNL     1      -2.675  20.974  40.948  1.00  0.00     0.157 C 
ATOM     13  C   UNL     1      -3.235  25.037  39.612  1.00  0.00     0.151 C 
ATOM     14  C   UNL     1      -3.241  23.515  43.234  1.00  0.00     0.159 C 
ENDROOT
TORSDOF 0
ENDMDL
MODEL 3
REMARK VINA RESULT:      -4.4     32.495     32.869
REMARK SMILES Cn1c(=O)c2c(ncn2C)n(C)c1=O
REMARK SMILES IDX 4 1 14 2 11 3 9 4 2 5 7 6 5 7 6 8 3 9 13 10 8 11 12 12 10 13
REMARK SMILES IDX 1 14
REMARK H PARENT
REMARK Flexibility Score: inf
ROOT
ATOM      1  O   UNL     1      29.163  35.225  44.885  1.00  0.00    -0.267 OA
ATOM      2  O   UNL     1      25.805  35.141  44.039  1.00  0.00    -0.247 OA
ATOM      3  N   UNL     1      26.450  33.971  45.142  1.00  0.00    -0.279 N 
ATOM      4  N   UNL     1      28.757  33.502  46.141  1.00  0.00    -0.328 N 
ATOM      5  N   UNL     1      27.484  35.183  44.462  1.00  0.00    -0.261 N 
ATOM      6  N   UNL     1      27.301  32.829  46.278  1.00  0.00    -0.218 NA
ATOM      7  C   UNL     1      28.129  34.013  45.565  1.00  0.00     0.152 A 
ATOM      8  C   UNL     1      27.225  33.595  45.650  1.00  0.00     0.167 A 
ATOM      9  C   UNL     1      28.259  34.807  44.971  1.00  0.00     0.282 A 
ATOM     10  C   UNL     1      26.580  34.765  44.548  1.00  0.00     0.332 A 
ATOM     11  C   UNL     1      28.247  32.771  46.581  1.00  0.00     0.202 A 
ATOM     12  C   UNL     1      25.546  33.553  45.227  1.00  0.00     0.157 C 
ATOM     13  C   UNL     1      29.732  33.689  46.257  1.00  0.00     0.151 C 
ATOM     14  C   UNL     1      27.614  35.977  43.868  1.00  0.00     0.159 C 
ENDROOT
TORSDOF 0
ENDMDL
MODEL 4
REMARK VINA RESULT:      -4.4     20.456     21.657
REMARK SMILES Cn1c(=O)c2c(ncn2C)n(C)c1=O
REMARK SMILES IDX 4 1 14 2 11 3 9 4 2 5 7 6 5 7 6 8 3 9 13 10 8 11 12 12 10 13
REMARK SMILES IDX 1 14
REMARK H PARENT
REMARK Flexibility Score: inf
ROOT
ATOM      1  O   UNL     1      -2.197   0.187  38.194  1.00  0.00    -0.267 OA
ATOM      2  O   UNL     1      -1.112   2.365  35.729  1.00  0.00    -0.247 OA
ATOM      3  N   UNL     1      -2.529   2.739  36.653  1.00  0.00    -0.279 N 
ATOM      4  N   UNL     1      -3.812   1.594  38.546  1.00  0.00    -0.328 N 
ATOM      5  N   UNL     1      -1.655   1.276  36.962  1.00  0.00    -0.261 N 
ATOM      6  N   UNL     1      -3.990   2.964  37.719  1.00  0.00    -0.218 NA
ATOM      7  C   UNL     1      -3.072   1.650  37.885  1.00  0.00     0.152 A 
ATOM      8  C   UNL     1      -3.182   2.500  37.371  1.00  0.00     0.167 A 
ATOM      9  C   UNL     1      -2.308   1.037  37.680  1.00  0.00     0.282 A 
ATOM     10  C   UNL     1      -1.765   2.127  36.448  1.00  0.00     0.332 A 
ATOM     11  C   UNL     1      -4.379   2.405  38.443  1.00  0.00     0.202 A 
ATOM     12  C   UNL     1      -2.639   3.590  36.139  1.00  0.00     0.157 C 
ATOM     13  C   UNL     1      -3.961   0.853  39.200  1.00  0.00     0.151 C 
ATOM     14  C   UNL     1      -0.891   0.664  36.757  1.00  0.00     0.159 C 
ENDROOT
TORSDOF 0
ENDMDL
MODEL 5
REMARK VINA RESULT:      -4.4     20.756     21.793
REMARK SMILES Cn1c(=O)c2c(ncn2C)n(C)c1=O
REMARK SMILES IDX 4 1 14 2 11 3 9 4 2 5 7 6 5 7 6 8 3 9 13 10 8 11 12 12 10 13
REMARK SMILES IDX 1 14
REMARK H PARENT
REMARK Flexibility Score: inf
ROOT
ATOM      1  O   UNL     1      -1.667   0.365  37.453  1.00  0.00    -0.267 OA
ATOM      2  O   UNL     1      -4.477   0.838  39.423  1.00  0.00    -0.247 OA
ATOM      3  N   UNL     1      -4.006   2.052  38.280  1.00  0.00    -0.279 N 
ATOM      4  N   UNL     1      -2.106   2.306  36.588  1.00  0.00    -0.328 N 
ATOM      5  N   UNL     1      -3.072   0.601  38.438  1.00  0.00    -0.261 N 
ATOM      6  N   UNL     1      -3.361   3.212  37.032  1.00  0.00    -0.218 NA
ATOM      7  C   UNL     1      -2.601   1.815  37.296  1.00  0.00     0.152 A 
ATOM      8  C   UNL     1      -3.380   2.377  37.571  1.00  0.00     0.167 A 
ATOM      9  C   UNL     1      -2.447   0.927  37.729  1.00  0.00     0.282 A 
ATOM     10  C   UNL     1      -3.852   1.164  38.714  1.00  0.00     0.332 A 
ATOM     11  C   UNL     1      -2.574   3.168  36.424  1.00  0.00     0.202 A 
ATOM     12  C   UNL     1      -4.785   2.614  38.556  1.00  0.00     0.157 C 
ATOM     13  C   UNL     1      -1.280   1.990  36.120  1.00  0.00     0.151 C 
ATOM     14  C   UNL     1      -2.918  -0.287  38.871  1.00  0.00     0.159 C 
ENDROOT
TORSDOF 0
ENDMDL
MODEL 6
REMARK VINA RESULT:      -4.3     32.861     33.375
REMARK SMILES Cn1c(=O)c2c(ncn2C)n(C)c1=O
REMARK SMILES IDX 4 1 14 2 11 3 9 4 2 5 7 6 5 7 6 8 3 9 13 10 8 11 12 12 10 13
REMARK SMILES IDX 1 14
REMARK H PARENT
REMARK Flexibility Score: inf
ROOT
ATOM      1  O   UNL     1      27.438  34.395  45.592  1.00  0.00    -0.267 OA
ATOM      2  O   UNL     1      25.871  35.757  42.820  1.00  0.00    -0.247 OA
ATOM      3  N   UNL     1      27.593  35.580  42.841  1.00  0.00    -0.279 N 
ATOM      4  N   UNL     1      29.303  34.682  44.518  1.00  0.00    -0.328 N 
ATOM      5  N   UNL     1      26.655  35.076  44.206  1.00  0.00    -0.261 N 
ATOM      6  N   UNL     1      29.386  35.317  43.041  1.00  0.00    -0.218 NA
ATOM      7  C   UNL     1      28.377  34.899  44.227  1.00  0.00     0.152 A 
ATOM      8  C   UNL     1      28.429  35.294  43.310  1.00  0.00     0.167 A 
ATOM      9  C   UNL     1      27.490  34.790  44.675  1.00  0.00     0.282 A 
ATOM     10  C   UNL     1      26.706  35.471  43.289  1.00  0.00     0.332 A 
ATOM     11  C   UNL     1      29.925  34.940  43.787  1.00  0.00     0.202 A 
ATOM     12  C   UNL     1      27.645  35.975  41.923  1.00  0.00     0.157 C 
ATOM     13  C   UNL     1      29.563  34.275  45.393  1.00  0.00     0.151 C 
ATOM     14  C   UNL     1      25.767  34.967  44.654  1.00  0.00     0.159 C 
ENDROOT
TORSDOF 0
ENDMDL
MODEL 7
REMARK VINA RESULT:      -4.1     24.604     26.121
REMARK SMILES Cn1c(=O)c2c(ncn2C)n(C)c1=O
REMARK SMILES IDX 4 1 14 2 11 3 9 4 2 5 7 6 5 7 6 8 3 9 13 10 8 11 12 12 10 13
REMARK SMILES IDX 1 14
REMARK H PARENT
REMARK Flexibility Score: inf
ROOT
ATOM      1  O   UNL     1      13.859   6.773  27.693  1.00  0.00    -0.267 OA
ATOM      2  O   UNL     1      12.526   9.122  29.861  1.00  0.00    -0.247 OA
ATOM      3  N   UNL     1      13.805   8.082  30.392  1.00  0.00    -0.279 N 
ATOM      4  N   UNL     1      15.176   6.206  29.323  1.00  0.00    -0.328 N 
ATOM      5  N   UNL     1      13.192   7.948  28.777  1.00  0.00    -0.261 N 
ATOM      6  N   UNL     1      15.146   6.909  30.771  1.00  0.00    -0.218 NA
ATOM      7  C   UNL     1      14.472   6.908  29.307  1.00  0.00     0.152 A 
ATOM      8  C   UNL     1      14.453   7.344  30.207  1.00  0.00     0.167 A 
ATOM      9  C   UNL     1      13.841   7.210  28.592  1.00  0.00     0.282 A 
ATOM     10  C   UNL     1      13.174   8.384  29.677  1.00  0.00     0.332 A 
ATOM     11  C   UNL     1      15.592   6.207  30.226  1.00  0.00     0.202 A 
ATOM     12  C   UNL     1      13.786   8.518  31.291  1.00  0.00     0.157 C 
ATOM     13  C   UNL     1      15.423   5.605  28.563  1.00  0.00     0.151 C 
ATOM     14  C   UNL     1      12.562   8.250  28.062  1.00  0.00     0.159 C 
ENDROOT
TORSDOF 0
ENDMDL
MODEL 8
REMARK VINA RESULT:      -4.0     32.428     32.864
REMARK SMILES Cn1c(=O)c2c(ncn2C)n(C)c1=O
REMARK SMILES IDX 4 1 14 2 11 3 9 4 2 5 7 6 5 7 6 8 3 9 13 10 8 11 12 12 10 13
REMARK SMILES IDX 1 14
REMARK H PARENT
REMARK Flexibility Score: inf
ROOT
ATOM      1  O   UNL     1      25.541  34.523  44.310  1.00  0.00    -0.267 OA
ATOM      2  O   UNL     1      27.951  36.656  43.028  1.00  0.00    -0.247 OA
ATOM      3  N   UNL     1      28.375  35.504  44.249  1.00  0.00    -0.279 N 
ATOM      4  N   UNL     1      27.114  33.708  45.564  1.00  0.00    -0.328 N 
ATOM      5  N   UNL     1      26.746  35.589  43.669  1.00  0.00    -0.261 N 
ATOM      6  N   UNL     1      28.636  34.235  45.531  1.00  0.00    -0.218 NA
ATOM      7  C   UNL     1      27.171  34.437  44.890  1.00  0.00     0.152 A 
ATOM      8  C   UNL     1      28.115  34.764  44.870  1.00  0.00     0.167 A 
ATOM      9  C   UNL     1      26.486  34.850  44.289  1.00  0.00     0.282 A 
ATOM     10  C   UNL     1      27.691  35.916  43.649  1.00  0.00     0.332 A 
ATOM     11  C   UNL     1      28.018  33.583  45.959  1.00  0.00     0.202 A 
ATOM     12  C   UNL     1      29.320  35.831  44.229  1.00  0.00     0.157 C 
ATOM     13  C   UNL     1      26.293  33.191  45.802  1.00  0.00     0.151 C 
ATOM     14  C   UNL     1      26.061  36.002  43.068  1.00  0.00     0.159 C 
ENDROOT
TORSDOF 0
ENDMDL
MODEL 9
REMARK VINA RESULT:      -3.9     32.904     33.371
REMARK SMILES Cn1c(=O)c2c(ncn2C)n(C)c1=O
REMARK SMILES IDX 4 1 14 2 11 3 9 4 2 5 7 6 5 7 6 8 3 9 13 10 8 11 12 12 10 13
REMARK SMILES IDX 1 14
REMARK H PARENT
REMARK Flexibility Score: inf
ROOT
ATOM      1  O   UNL     1      26.656  35.725  43.990  1.00  0.00    -0.267 OA
ATOM      2  O   UNL     1      26.756  32.971  46.089  1.00  0.00    -0.247 OA
ATOM      3  N   UNL     1      28.214  33.826  45.713  1.00  0.00    -0.279 N 
ATOM      4  N   UNL     1      28.802  35.864  44.283  1.00  0.00    -0.328 N 
ATOM      5  N   UNL     1      26.706  34.348  45.039  1.00  0.00    -0.261 N 
ATOM      6  N   UNL     1      29.639  34.845  45.207  1.00  0.00    -0.218 NA
ATOM      7  C   UNL     1      28.164  35.203  44.663  1.00  0.00     0.152 A 
ATOM      8  C   UNL     1      28.684  34.570  45.238  1.00  0.00     0.167 A 
ATOM      9  C   UNL     1      27.175  35.092  44.564  1.00  0.00     0.282 A 
ATOM     10  C   UNL     1      27.225  33.715  45.614  1.00  0.00     0.332 A 
ATOM     11  C   UNL     1      29.712  35.643  44.618  1.00  0.00     0.202 A 
ATOM     12  C   UNL     1      28.734  33.193  46.287  1.00  0.00     0.157 C 
ATOM     13  C   UNL     1      28.571  36.618  43.670  1.00  0.00     0.151 C 
ATOM     14  C   UNL     1      25.717  34.236  44.940  1.00  0.00     0.159 C 
ENDROOT
TORSDOF 0
ENDMDL
